
 OpenBabel10211602223D
libRbt.so/2013.1/901 2013/11/27
 28 30  0  0  0  0  0  0  0  0999 V2000
   39.3184   14.9982   85.2719 C   0  0  0  0  0
   40.2373   13.9490   84.7898 C   0  0  0  0  0
   39.9160   12.7475   85.0125 O   0  0  0  0  0
   41.4764   14.2398   84.0139 C   0  0  0  0  0
   41.7673   13.4963   82.8586 C   0  0  0  0  0
   42.8650   13.8092   82.0259 C   0  0  0  0  0
   43.7715   14.8274   82.4444 C   0  0  0  0  0
   43.4547   15.5816   83.5961 C   0  0  0  0  0
   42.3213   15.3053   84.3545 C   0  0  0  0  0
   45.0220   15.2006   81.6338 C   0  0  0  0  0
   44.7720   16.5578   80.9331 C   0  0  0  0  0
   46.2599   15.3368   82.5565 C   0  0  0  0  0
   45.3642   14.1121   80.5870 C   0  0  0  0  0
   44.1371   13.6554   79.8131 C   0  0  0  0  0
   43.0666   13.0092   80.7298 C   0  0  0  0  0
   41.7505   12.9626   79.9124 C   0  0  0  0  0
   43.4813   11.5648   81.0890 C   0  0  0  0  0
   38.2359   14.7106   86.0089 C   0  0  0  0  0
   37.2948   15.7265   86.5463 C   0  0  0  0  0
   36.2736   15.2958   87.4075 C   0  0  0  0  0
   35.3764   16.2101   87.9681 C   0  0  0  0  0
   35.4629   17.5783   87.6595 C   0  0  0  0  0
   34.4976   18.5402   88.2570 C   0  0  0  0  0
   33.5308   18.1126   88.9469 O   0  0  0  0  0
   34.6163   19.9190   88.0792 O   0  0  0  0  0
   36.4825   18.0125   86.7969 C   0  0  0  0  0
   37.3808   17.0981   86.2394 C   0  0  0  0  0
   35.3483   20.3340   87.5095 H   0  0  0  0  0
  1  2  1  0  0  0
  1 18  2  0  0  0
  2  3  2  0  0  0
  2  4  1  0  0  0
  4  5  2  0  0  0
  9  4  1  0  0  0
  5  6  1  0  0  0
  6  7  2  0  0  0
 15  6  1  0  0  0
  7  8  1  0  0  0
  7 10  1  0  0  0
  8  9  2  0  0  0
 10 11  1  0  0  0
 10 12  1  0  0  0
 10 13  1  0  0  0
 13 14  1  0  0  0
 14 15  1  0  0  0
 15 16  1  0  0  0
 15 17  1  0  0  0
 18 19  1  0  0  0
 19 20  2  0  0  0
 27 19  1  0  0  0
 20 21  1  0  0  0
 21 22  2  0  0  0
 22 23  1  0  0  0
 22 26  1  0  0  0
 23 24  2  0  0  0
 23 25  1  0  0  0
 25 28  1  0  0  0
 26 27  2  0  0  0
M  END
