
 OpenBabel10211602243D
libRbt.so/2013.1/901 2013/11/27
 28 30  0  0  0  0  0  0  0  0999 V2000
   38.5910   13.7287   85.3726 C   0  0  0  0  0
   39.6155   12.9808   84.6185 C   0  0  0  0  0
   39.4116   11.7490   84.4252 O   0  0  0  0  0
   40.8302   13.6183   84.0352 C   0  0  0  0  0
   41.3723   13.1225   82.8383 C   0  0  0  0  0
   42.4498   13.7621   82.1853 C   0  0  0  0  0
   43.0815   14.8657   82.8305 C   0  0  0  0  0
   42.5124   15.3672   84.0221 C   0  0  0  0  0
   41.3991   14.7671   84.6023 C   0  0  0  0  0
   44.2932   15.5903   82.2246 C   0  0  0  0  0
   43.8276   16.9598   81.6740 C   0  0  0  0  0
   45.3878   15.8298   83.2956 C   0  0  0  0  0
   44.9480   14.7543   81.0977 C   0  0  0  0  0
   43.9178   14.1843   80.1347 C   0  0  0  0  0
   42.9293   13.2146   80.8321 C   0  0  0  0  0
   41.7305   13.0313   79.8670 C   0  0  0  0  0
   43.6040   11.8425   81.0547 C   0  0  0  0  0
   38.5795   15.0686   85.4181 C   0  0  0  0  0
   37.5568   15.8733   86.1344 C   0  0  0  0  0
   37.6300   17.2721   86.0445 C   0  0  0  0  0
   36.6780   18.0809   86.6725 C   0  0  0  0  0
   35.6413   17.5094   87.4298 C   0  0  0  0  0
   34.6385   18.3814   88.0992 C   0  0  0  0  0
   33.6993   17.8624   88.7639 O   0  0  0  0  0
   34.6917   19.7733   88.0170 O   0  0  0  0  0
   35.5660   16.1102   87.5232 C   0  0  0  0  0
   36.5165   15.3024   86.8925 C   0  0  0  0  0
   35.4241   20.2617   87.5096 H   0  0  0  0  0
  1  2  1  0  0  0
  1 18  2  0  0  0
  2  3  2  0  0  0
  2  4  1  0  0  0
  4  5  2  0  0  0
  9  4  1  0  0  0
  5  6  1  0  0  0
  6  7  2  0  0  0
 15  6  1  0  0  0
  7  8  1  0  0  0
  7 10  1  0  0  0
  8  9  2  0  0  0
 10 11  1  0  0  0
 10 12  1  0  0  0
 10 13  1  0  0  0
 13 14  1  0  0  0
 14 15  1  0  0  0
 15 16  1  0  0  0
 15 17  1  0  0  0
 18 19  1  0  0  0
 19 20  2  0  0  0
 27 19  1  0  0  0
 20 21  1  0  0  0
 21 22  2  0  0  0
 22 23  1  0  0  0
 22 26  1  0  0  0
 23 24  2  0  0  0
 23 25  1  0  0  0
 25 28  1  0  0  0
 26 27  2  0  0  0
M  END
