
 OpenBabel10211602153D
libRbt.so/2013.1/901 2013/11/27
 28 30  0  0  0  0  0  0  0  0999 V2000
   38.6151   13.7492   85.3759 C   0  0  0  0  0
   39.6447   13.0021   84.6278 C   0  0  0  0  0
   39.4476   11.7681   84.4419 O   0  0  0  0  0
   40.8568   13.6425   84.0423 C   0  0  0  0  0
   41.3703   13.1784   82.8204 C   0  0  0  0  0
   42.4440   13.8247   82.1679 C   0  0  0  0  0
   43.1020   14.8992   82.8357 C   0  0  0  0  0
   42.5614   15.3696   84.0531 C   0  0  0  0  0
   41.4511   14.7654   84.6348 C   0  0  0  0  0
   44.3118   15.6273   82.2304 C   0  0  0  0  0
   43.8543   17.0195   81.7323 C   0  0  0  0  0
   45.4289   15.8187   83.2877 C   0  0  0  0  0
   44.9347   14.8194   81.0655 C   0  0  0  0  0
   43.8796   14.2935   80.1045 C   0  0  0  0  0
   42.8913   13.3146   80.7893 C   0  0  0  0  0
   41.6727   13.1774   79.8415 C   0  0  0  0  0
   43.5518   11.9277   80.9556 C   0  0  0  0  0
   38.6170   15.0882   85.4425 C   0  0  0  0  0
   37.5905   15.8927   86.1536 C   0  0  0  0  0
   37.6366   17.2898   86.0267 C   0  0  0  0  0
   36.6793   18.0973   86.6484 C   0  0  0  0  0
   35.6649   17.5271   87.4361 C   0  0  0  0  0
   34.6563   18.3979   88.0983 C   0  0  0  0  0
   33.7214   17.8782   88.7686 O   0  0  0  0  0
   34.6993   19.7893   88.0033 O   0  0  0  0  0
   35.6168   16.1296   87.5665 C   0  0  0  0  0
   36.5724   15.3230   86.9421 C   0  0  0  0  0
   35.4105   20.2771   87.4661 H   0  0  0  0  0
  1  2  1  0  0  0
  1 18  2  0  0  0
  2  3  2  0  0  0
  2  4  1  0  0  0
  4  5  2  0  0  0
  9  4  1  0  0  0
  5  6  1  0  0  0
  6  7  2  0  0  0
 15  6  1  0  0  0
  7  8  1  0  0  0
  7 10  1  0  0  0
  8  9  2  0  0  0
 10 11  1  0  0  0
 10 12  1  0  0  0
 10 13  1  0  0  0
 13 14  1  0  0  0
 14 15  1  0  0  0
 15 16  1  0  0  0
 15 17  1  0  0  0
 18 19  1  0  0  0
 19 20  2  0  0  0
 27 19  1  0  0  0
 20 21  1  0  0  0
 21 22  2  0  0  0
 22 23  1  0  0  0
 22 26  1  0  0  0
 23 24  2  0  0  0
 23 25  1  0  0  0
 25 28  1  0  0  0
 26 27  2  0  0  0
M  END
