
     RDKit          3D

 20 20  0  0  0  0  0  0  0  0999 V2000
   -1.0722    1.0900   -0.8400 C   0  0  1  0  0  0  0  0  0  0  0  0
   -1.8803    2.1748   -0.4603 O   0  0  0  0  0  0  0  0  0  0  0  0
    0.2833    1.3389   -0.5244 O   0  0  0  0  0  0  0  0  0  0  0  0
    0.8044    0.1702    0.0734 C   0  0  2  0  0  0  0  0  0  0  0  0
    2.1574   -0.1836   -0.5565 C   0  0  0  0  0  0  0  0  0  0  0  0
    3.0763    0.8564   -0.3579 O   0  0  0  0  0  0  0  0  0  0  0  0
   -0.2095   -0.9596   -0.0861 C   0  0  1  0  0  0  0  0  0  0  0  0
   -0.1674   -1.8343    1.0118 O   0  0  0  0  0  0  0  0  0  0  0  0
   -1.5159   -0.2112   -0.1783 C   0  0  1  0  0  0  0  0  0  0  0  0
   -2.0442    0.0392    1.1016 O   0  0  0  0  0  0  0  0  0  0  0  0
   -1.1501    0.9729   -1.9434 H   0  0  0  0  0  0  0  0  0  0  0  0
   -1.5760    2.4715    0.4372 H   0  0  0  0  0  0  0  0  0  0  0  0
    0.9572    0.3773    1.1570 H   0  0  0  0  0  0  0  0  0  0  0  0
    2.0315   -0.3379   -1.6497 H   0  0  0  0  0  0  0  0  0  0  0  0
    2.5487   -1.1309   -0.1193 H   0  0  0  0  0  0  0  0  0  0  0  0
    3.3741    0.7960    0.5874 H   0  0  0  0  0  0  0  0  0  0  0  0
   -0.0333   -1.5165   -1.0378 H   0  0  0  0  0  0  0  0  0  0  0  0
   -0.7319   -2.6143    0.7701 H   0  0  0  0  0  0  0  0  0  0  0  0
   -2.2548   -0.7494   -0.8181 H   0  0  0  0  0  0  0  0  0  0  0  0
   -2.5974   -0.7494    1.3413 H   0  0  0  0  0  0  0  0  0  0  0  0
  1  2  1  0
  1  3  1  0
  3  4  1  0
  4  5  1  0
  5  6  1  0
  4  7  1  0
  7  8  1  0
  7  9  1  0
  9 10  1  0
  9  1  1  0
  1 11  1  6
  2 12  1  0
  4 13  1  1
  5 14  1  0
  5 15  1  0
  6 16  1  0
  7 17  1  6
  8 18  1  0
  9 19  1  6
 10 20  1  0
M  END
$$$$
