
 OpenBabel12121610063D
libRbt.so/2013.1/901 2013/11/27
 36 40  0  0  1  0  0  0  0  0999 V2000
    6.7003  -33.2453   -4.5792 C   0  0  1  0  0  0  0  0  0  0  0  0
    5.6821  -32.6087   -3.6250 C   0  0  0  0  0  0  0  0  0  0  0  0
    7.9918  -32.4116   -4.6588 C   0  0  0  0  0  0  0  0  0  0  0  0
    8.7558  -32.5067   -3.3966 N   0  0  0  0  0  0  0  0  0  0  0  0
    9.9398  -31.6249   -3.4548 C   0  0  0  0  0  0  0  0  0  0  0  0
    9.5401  -30.1736   -3.2639 C   0  0  0  0  0  0  0  0  0  0  0  0
   10.2296  -29.0807   -3.8702 C   0  0  0  0  0  0  0  0  0  0  0  0
   11.4499  -29.3285   -4.7271 C   0  0  0  0  0  0  0  0  0  0  0  0
    9.7418  -27.7528   -3.6918 C   0  0  0  0  0  0  0  0  0  0  0  0
   10.4216  -26.6460   -4.3103 N   0  0  0  0  0  0  0  0  0  0  0  0
    9.8637  -25.6088   -4.8651 C   0  0  0  0  0  0  0  0  0  0  0  0
    8.4722  -25.5330   -4.9710 O   0  0  0  0  0  0  0  0  0  0  0  0
   10.7247  -24.5410   -5.4305 C   0  0  0  0  0  0  0  0  0  0  0  0
   10.1785  -23.4080   -6.0526 C   0  0  0  0  0  0  0  0  0  0  0  0
   10.9942  -22.4539   -6.5711 N   0  0  0  0  0  0  0  0  0  0  0  0
   12.3463  -22.5654   -6.4908 C   0  0  0  0  0  0  0  0  0  0  0  0
   13.2202  -21.5270   -7.1108 C   0  0  0  0  0  0  0  0  0  0  0  0
   12.9004  -23.6510   -5.8921 N   0  0  0  0  0  0  0  0  0  0  0  0
   12.1248  -24.6305   -5.3607 C   0  0  0  0  0  0  0  0  0  0  0  0
    8.6367  -27.5346   -2.8463 C   0  0  0  0  0  0  0  0  0  0  0  0
    8.0377  -28.6039   -2.2751 N   0  0  0  0  0  0  0  0  0  0  0  0
    6.9824  -28.6527   -1.4514 C   0  0  0  0  0  0  0  0  0  0  0  0
    6.7603  -29.9846   -1.1537 C   0  0  0  0  0  0  0  0  0  0  0  0
    7.6723  -30.7599   -1.7871 N   0  0  0  0  0  0  0  0  0  0  0  0
    8.4338  -29.8699   -2.4601 C   0  0  0  0  0  0  0  0  0  0  0  0
    9.1545  -33.9093   -3.1528 C   0  0  0  0  0  0  0  0  0  0  0  0
    7.9109  -34.7819   -2.9835 C   0  0  0  0  0  0  0  0  0  0  0  0
    7.0251  -34.6141   -4.1439 N   0  0  0  0  0  0  0  0  0  0  0  0
    6.5944  -35.7674   -4.8961 C   0  0  0  0  0  0  0  0  0  0  0  0
    7.3596  -36.7669   -4.9918 O   0  0  0  0  0  0  0  0  0  0  0  0
    5.2138  -35.8342   -5.5207 C   0  0  0  0  0  0  0  0  0  0  0  0
    5.2628  -35.5669   -7.0277 C   0  0  0  0  0  0  0  0  0  0  0  0
    5.2101  -36.9282   -7.7231 C   0  0  0  0  0  0  0  0  0  0  0  0
    4.9976  -37.9822   -6.6407 C   0  0  0  0  0  0  0  0  0  0  0  0
    4.6133  -37.2295   -5.3773 C   0  0  0  0  0  0  0  0  0  0  0  0
    7.8611  -26.2818   -4.6729 H   0  0  0  0  0  0  0  0  0  0  0  0
  1  2  1  1  0  0  0
  1  3  1  0  0  0  0
  3  4  1  0  0  0  0
  4  5  1  0  0  0  0
  4 26  1  0  0  0  0
  5  6  1  0  0  0  0
  6  7  2  0  0  0  0
  7  8  1  0  0  0  0
  7  9  1  0  0  0  0
  9 10  1  0  0  0  0
  9 20  2  0  0  0  0
 10 11  2  0  0  0  0
 11 12  1  0  0  0  0
 11 13  1  0  0  0  0
 12 36  1  0  0  0  0
 13 14  2  0  0  0  0
 14 15  1  0  0  0  0
 15 16  2  0  0  0  0
 16 17  1  0  0  0  0
 16 18  1  0  0  0  0
 18 19  2  0  0  0  0
 19 13  1  0  0  0  0
 20 21  1  0  0  0  0
 21 22  1  0  0  0  0
 22 23  2  0  0  0  0
 23 24  1  0  0  0  0
 24 25  2  0  0  0  0
 25  6  1  0  0  0  0
 25 21  1  0  0  0  0
 26 27  1  0  0  0  0
 27 28  1  0  0  0  0
 28 29  1  0  0  0  0
 28  1  1  0  0  0  0
 29 30  2  0  0  0  0
 29 31  1  0  0  0  0
 31 32  1  0  0  0  0
 32 33  1  0  0  0  0
 33 34  1  0  0  0  0
 34 35  1  0  0  0  0
 35 31  1  0  0  0  0
M  END
