
 OpenBabel12121610153D
libRbt.so/2013.1/901 2013/11/27
 36 40  0  0  1  0  0  0  0  0999 V2000
   10.0861  -30.7970   -3.4992 C   0  0  1  0  0  0  0  0  0  0  0  0
   10.2233  -30.2834   -4.9379 C   0  0  0  0  0  0  0  0  0  0  0  0
   10.1475  -29.6423   -2.4833 C   0  0  0  0  0  0  0  0  0  0  0  0
    8.9261  -28.8126   -2.5579 N   0  0  0  0  0  0  0  0  0  0  0  0
    9.0446  -27.6554   -1.6472 C   0  0  0  0  0  0  0  0  0  0  0  0
   10.2011  -26.7632   -2.0580 C   0  0  0  0  0  0  0  0  0  0  0  0
   11.4628  -26.7520   -1.3905 C   0  0  0  0  0  0  0  0  0  0  0  0
   11.6957  -27.6311   -0.1831 C   0  0  0  0  0  0  0  0  0  0  0  0
   12.5170  -25.9311   -1.8883 C   0  0  0  0  0  0  0  0  0  0  0  0
   13.7965  -25.9235   -1.2308 N   0  0  0  0  0  0  0  0  0  0  0  0
   14.9625  -25.9640   -1.8085 C   0  0  0  0  0  0  0  0  0  0  0  0
   15.0539  -26.1033   -3.1961 O   0  0  0  0  0  0  0  0  0  0  0  0
   16.1861  -25.9170   -0.9706 C   0  0  0  0  0  0  0  0  0  0  0  0
   17.4680  -25.9996   -1.5355 C   0  0  0  0  0  0  0  0  0  0  0  0
   18.5681  -25.9659   -0.7399 N   0  0  0  0  0  0  0  0  0  0  0  0
   18.4568  -25.8407    0.6088 C   0  0  0  0  0  0  0  0  0  0  0  0
   19.6793  -25.8545    1.4643 C   0  0  0  0  0  0  0  0  0  0  0  0
   17.2280  -25.7568    1.1806 N   0  0  0  0  0  0  0  0  0  0  0  0
   16.1001  -25.7874    0.4255 C   0  0  0  0  0  0  0  0  0  0  0  0
   12.2660  -25.0778   -2.9804 C   0  0  0  0  0  0  0  0  0  0  0  0
   11.0439  -25.1086   -3.5584 N   0  0  0  0  0  0  0  0  0  0  0  0
   10.5731  -24.4077   -4.5984 C   0  0  0  0  0  0  0  0  0  0  0  0
    9.2661  -24.8103   -4.8018 C   0  0  0  0  0  0  0  0  0  0  0  0
    8.9250  -25.7550   -3.8933 N   0  0  0  0  0  0  0  0  0  0  0  0
   10.0451  -25.9034   -3.1529 C   0  0  0  0  0  0  0  0  0  0  0  0
    7.7404  -29.6291   -2.2215 C   0  0  0  0  0  0  0  0  0  0  0  0
    7.5748  -30.7527   -3.2446 C   0  0  0  0  0  0  0  0  0  0  0  0
    8.8190  -31.5293   -3.3347 N   0  0  0  0  0  0  0  0  0  0  0  0
    8.7930  -32.9590   -3.1432 C   0  0  0  0  0  0  0  0  0  0  0  0
    7.9442  -33.4645   -2.3573 O   0  0  0  0  0  0  0  0  0  0  0  0
    9.7201  -33.8778   -3.9159 C   0  0  0  0  0  0  0  0  0  0  0  0
   11.1897  -33.6089   -3.5801 C   0  0  0  0  0  0  0  0  0  0  0  0
   11.6181  -34.6759   -2.5715 C   0  0  0  0  0  0  0  0  0  0  0  0
   10.4509  -35.6458   -2.4144 C   0  0  0  0  0  0  0  0  0  0  0  0
    9.4813  -35.3380   -3.5437 C   0  0  0  0  0  0  0  0  0  0  0  0
   14.2397  -26.1824   -3.7909 H   0  0  0  0  0  0  0  0  0  0  0  0
  1  2  1  6  0  0  0
  1  3  1  0  0  0  0
  3  4  1  0  0  0  0
  4  5  1  0  0  0  0
  4 26  1  0  0  0  0
  5  6  1  0  0  0  0
  6  7  2  0  0  0  0
  7  8  1  0  0  0  0
  7  9  1  0  0  0  0
  9 10  1  0  0  0  0
  9 20  2  0  0  0  0
 10 11  2  0  0  0  0
 11 12  1  0  0  0  0
 11 13  1  0  0  0  0
 12 36  1  0  0  0  0
 13 14  2  0  0  0  0
 14 15  1  0  0  0  0
 15 16  2  0  0  0  0
 16 17  1  0  0  0  0
 16 18  1  0  0  0  0
 18 19  2  0  0  0  0
 19 13  1  0  0  0  0
 20 21  1  0  0  0  0
 21 22  1  0  0  0  0
 22 23  2  0  0  0  0
 23 24  1  0  0  0  0
 24 25  2  0  0  0  0
 25  6  1  0  0  0  0
 25 21  1  0  0  0  0
 26 27  1  0  0  0  0
 27 28  1  0  0  0  0
 28 29  1  0  0  0  0
 28  1  1  0  0  0  0
 29 30  2  0  0  0  0
 29 31  1  0  0  0  0
 31 32  1  0  0  0  0
 32 33  1  0  0  0  0
 33 34  1  0  0  0  0
 34 35  1  0  0  0  0
 35 31  1  0  0  0  0
M  END
