
 OpenBabel12121609423D
libRbt.so/2013.1/901 2013/11/27
 28 30  0  0  0  0  0  0  0  0999 V2000
   39.2861   13.9987   85.9754 C   0  0  0  0  0  0  0  0  0  0  0  0
   40.3999   13.2608   85.3429 C   0  0  0  0  0  0  0  0  0  0  0  0
   40.4825   12.0204   85.5507 O   0  0  0  0  0  0  0  0  0  0  0  0
   41.4267   13.9151   84.4958 C   0  0  0  0  0  0  0  0  0  0  0  0
   41.7233   13.3976   83.2293 C   0  0  0  0  0  0  0  0  0  0  0  0
   42.7191   13.9736   82.4069 C   0  0  0  0  0  0  0  0  0  0  0  0
   43.3730   15.1610   82.8550 C   0  0  0  0  0  0  0  0  0  0  0  0
   43.1040   15.6265   84.1607 C   0  0  0  0  0  0  0  0  0  0  0  0
   42.1503   15.0128   84.9667 C   0  0  0  0  0  0  0  0  0  0  0  0
   44.4174   15.8990   82.0037 C   0  0  0  0  0  0  0  0  0  0  0  0
   44.1460   17.4243   82.0037 C   0  0  0  0  0  0  0  0  0  0  0  0
   45.8217   15.6462   82.5986 C   0  0  0  0  0  0  0  0  0  0  0  0
   44.3758   15.4366   80.5261 C   0  0  0  0  0  0  0  0  0  0  0  0
   44.2927   13.9205   80.3984 C   0  0  0  0  0  0  0  0  0  0  0  0
   42.9999   13.3479   81.0316 C   0  0  0  0  0  0  0  0  0  0  0  0
   43.2027   11.8169   81.1558 C   0  0  0  0  0  0  0  0  0  0  0  0
   41.7934   13.6137   80.1022 C   0  0  0  0  0  0  0  0  0  0  0  0
   39.0754   15.3077   85.7720 C   0  0  0  0  0  0  0  0  0  0  0  0
   37.9638   16.0726   86.3890 C   0  0  0  0  0  0  0  0  0  0  0  0
   37.0239   15.4829   87.2560 C   0  0  0  0  0  0  0  0  0  0  0  0
   35.9884   16.2452   87.8056 C   0  0  0  0  0  0  0  0  0  0  0  0
   35.8659   17.6116   87.4999 C   0  0  0  0  0  0  0  0  0  0  0  0
   34.7705   18.4318   88.0724 C   0  0  0  0  0  0  0  0  0  0  0  0
   33.9051   17.8908   88.8112 O   0  0  0  0  0  0  0  0  0  0  0  0
   34.6564   19.7956   87.8045 O   0  0  0  0  0  0  0  0  0  0  0  0
   36.7880   18.1917   86.6126 C   0  0  0  0  0  0  0  0  0  0  0  0
   37.8229   17.4302   86.0635 C   0  0  0  0  0  0  0  0  0  0  0  0
   35.3187   20.2950   87.2253 H   0  0  0  0  0  0  0  0  0  0  0  0
  1  2  1  0  0  0  0
  1 18  2  0  0  0  0
  2  3  2  0  0  0  0
  2  4  1  0  0  0  0
  4  5  2  0  0  0  0
  5  6  1  0  0  0  0
  6  7  2  0  0  0  0
  7  8  1  0  0  0  0
  7 10  1  0  0  0  0
  8  9  2  0  0  0  0
  9  4  1  0  0  0  0
 10 11  1  0  0  0  0
 10 12  1  0  0  0  0
 10 13  1  0  0  0  0
 13 14  1  0  0  0  0
 14 15  1  0  0  0  0
 15 16  1  0  0  0  0
 15 17  1  0  0  0  0
 15  6  1  0  0  0  0
 18 19  1  0  0  0  0
 19 20  2  0  0  0  0
 20 21  1  0  0  0  0
 21 22  2  0  0  0  0
 22 23  1  0  0  0  0
 22 26  1  0  0  0  0
 23 24  2  0  0  0  0
 23 25  1  0  0  0  0
 25 28  1  0  0  0  0
 26 27  2  0  0  0  0
 27 19  1  0  0  0  0
M  END
