
 OpenBabel12121609473D
libRbt.so/2013.1/901 2013/11/27
 28 30  0  0  0  0  0  0  0  0999 V2000
   39.1190   15.2047   84.7884 C   0  0  0  0  0  0  0  0  0  0  0  0
   40.0016   14.2067   84.1479 C   0  0  0  0  0  0  0  0  0  0  0  0
   39.6323   13.0016   84.1494 O   0  0  0  0  0  0  0  0  0  0  0  0
   41.3011   14.5570   83.5247 C   0  0  0  0  0  0  0  0  0  0  0  0
   41.7956   13.7942   82.4601 C   0  0  0  0  0  0  0  0  0  0  0  0
   43.0456   14.0766   81.8625 C   0  0  0  0  0  0  0  0  0  0  0  0
   43.7739   15.2205   82.3091 C   0  0  0  0  0  0  0  0  0  0  0  0
   43.2872   15.9355   83.4251 C   0  0  0  0  0  0  0  0  0  0  0  0
   42.0745   15.6076   84.0232 C   0  0  0  0  0  0  0  0  0  0  0  0
   45.1062   15.6492   81.6756 C   0  0  0  0  0  0  0  0  0  0  0  0
   45.1190   17.1747   81.4055 C   0  0  0  0  0  0  0  0  0  0  0  0
   46.2587   15.3092   82.6481 C   0  0  0  0  0  0  0  0  0  0  0  0
   45.3382   14.9510   80.3127 C   0  0  0  0  0  0  0  0  0  0  0  0
   45.0194   13.4620   80.3659 C   0  0  0  0  0  0  0  0  0  0  0  0
   43.5318   13.1918   80.7037 C   0  0  0  0  0  0  0  0  0  0  0  0
   43.4227   11.6916   81.0752 C   0  0  0  0  0  0  0  0  0  0  0  0
   42.6504   13.4597   79.4622 C   0  0  0  0  0  0  0  0  0  0  0  0
   38.0545   14.8620   85.5292 C   0  0  0  0  0  0  0  0  0  0  0  0
   37.1548   15.8410   86.1876 C   0  0  0  0  0  0  0  0  0  0  0  0
   37.3097   17.2331   86.0436 C   0  0  0  0  0  0  0  0  0  0  0  0
   36.4401   18.1154   86.6922 C   0  0  0  0  0  0  0  0  0  0  0  0
   35.3988   17.6285   87.5010 C   0  0  0  0  0  0  0  0  0  0  0  0
   34.4710   18.5525   88.1980 C   0  0  0  0  0  0  0  0  0  0  0  0
   33.5320   18.0860   88.8966 O   0  0  0  0  0  0  0  0  0  0  0  0
   34.5955   19.9374   88.0920 O   0  0  0  0  0  0  0  0  0  0  0  0
   35.2630   16.2398   87.6659 C   0  0  0  0  0  0  0  0  0  0  0  0
   36.1318   15.3580   87.0177 C   0  0  0  0  0  0  0  0  0  0  0  0
   35.3392   20.3797   87.5678 H   0  0  0  0  0  0  0  0  0  0  0  0
  1  2  1  0  0  0  0
  1 18  2  0  0  0  0
  2  3  2  0  0  0  0
  2  4  1  0  0  0  0
  4  5  2  0  0  0  0
  5  6  1  0  0  0  0
  6  7  2  0  0  0  0
  7  8  1  0  0  0  0
  7 10  1  0  0  0  0
  8  9  2  0  0  0  0
  9  4  1  0  0  0  0
 10 11  1  0  0  0  0
 10 12  1  0  0  0  0
 10 13  1  0  0  0  0
 13 14  1  0  0  0  0
 14 15  1  0  0  0  0
 15 16  1  0  0  0  0
 15 17  1  0  0  0  0
 15  6  1  0  0  0  0
 18 19  1  0  0  0  0
 19 20  2  0  0  0  0
 20 21  1  0  0  0  0
 21 22  2  0  0  0  0
 22 23  1  0  0  0  0
 22 26  1  0  0  0  0
 23 24  2  0  0  0  0
 23 25  1  0  0  0  0
 25 28  1  0  0  0  0
 26 27  2  0  0  0  0
 27 19  1  0  0  0  0
M  END
