
     RDKit          3D

 68 72  0  0  0  0  0  0  0  0999 V2000
   -3.8043   -1.0115    0.7189 C   0  0  1  0  0  0  0  0  0  0  0  0
   -4.0437   -2.1137   -0.3205 C   0  0  0  0  0  0  0  0  0  0  0  0
   -2.5256   -1.2770    1.5335 C   0  0  0  0  0  0  0  0  0  0  0  0
   -1.3216   -1.0824    0.6978 N   0  0  0  0  0  0  0  0  0  0  0  0
   -0.1103   -1.4355    1.4664 C   0  0  0  0  0  0  0  0  0  0  0  0
    1.0871   -1.5833    0.5463 C   0  0  0  0  0  0  0  0  0  0  0  0
    2.2600   -0.7757    0.6443 C   0  0  0  0  0  0  0  0  0  0  0  0
    2.3469    0.3221    1.6798 C   0  0  0  0  0  0  0  0  0  0  0  0
    3.3662   -1.0308   -0.2184 C   0  0  0  0  0  0  0  0  0  0  0  0
    4.5580   -0.2314   -0.1179 N   0  0  0  0  0  0  0  0  0  0  0  0
    5.7830   -0.6494   -0.2575 C   0  0  0  0  0  0  0  0  0  0  0  0
    6.0429   -2.0087   -0.4524 O   0  0  0  0  0  0  0  0  0  0  0  0
    6.8960    0.3259   -0.1507 C   0  0  0  0  0  0  0  0  0  0  0  0
    8.1518    0.0746   -0.7242 C   0  0  0  0  0  0  0  0  0  0  0  0
    9.1539    0.9825   -0.5982 N   0  0  0  0  0  0  0  0  0  0  0  0
    8.9642    2.1509    0.0696 C   0  0  0  0  0  0  0  0  0  0  0  0
   10.0955    3.1098    0.2348 C   0  0  0  0  0  0  0  0  0  0  0  0
    7.7579    2.4195    0.6322 N   0  0  0  0  0  0  0  0  0  0  0  0
    6.7272    1.5413    0.5331 C   0  0  0  0  0  0  0  0  0  0  0  0
    3.2476   -2.0207   -1.2133 C   0  0  0  0  0  0  0  0  0  0  0  0
    2.1033   -2.7382   -1.2793 N   0  0  0  0  0  0  0  0  0  0  0  0
    1.7602   -3.7233   -2.1198 C   0  0  0  0  0  0  0  0  0  0  0  0
    0.4868   -4.1320   -1.7689 C   0  0  0  0  0  0  0  0  0  0  0  0
    0.0395   -3.4051   -0.7174 N   0  0  0  0  0  0  0  0  0  0  0  0
    1.0631   -2.5639   -0.4538 C   0  0  0  0  0  0  0  0  0  0  0  0
   -1.2567    0.3168    0.2248 C   0  0  0  0  0  0  0  0  0  0  0  0
   -2.4641    0.6232   -0.6612 C   0  0  0  0  0  0  0  0  0  0  0  0
   -3.7034    0.3017    0.0600 N   0  0  0  0  0  0  0  0  0  0  0  0
   -4.7315    1.3025    0.2104 C   0  0  0  0  0  0  0  0  0  0  0  0
   -4.4055    2.5192    0.2948 O   0  0  0  0  0  0  0  0  0  0  0  0
   -6.2026    0.9330    0.2030 C   0  0  0  0  0  0  0  0  0  0  0  0
   -6.9381    1.5211    1.4105 C   0  0  0  0  0  0  0  0  0  0  0  0
   -7.6583    2.7794    0.9234 C   0  0  0  0  0  0  0  0  0  0  0  0
   -7.4586    2.8599   -0.5870 C   0  0  0  0  0  0  0  0  0  0  0  0
   -6.9077    1.5112   -1.0203 C   0  0  0  0  0  0  0  0  0  0  0  0
   -4.6546   -1.0232    1.4351 H   0  0  0  0  0  0  0  0  0  0  0  0
   -4.9568   -1.8880   -0.9097 H   0  0  0  0  0  0  0  0  0  0  0  0
   -4.1872   -3.0921    0.1820 H   0  0  0  0  0  0  0  0  0  0  0  0
   -3.1860   -2.1980   -1.0188 H   0  0  0  0  0  0  0  0  0  0  0  0
   -2.5615   -2.3181    1.9255 H   0  0  0  0  0  0  0  0  0  0  0  0
   -2.5044   -0.5900    2.4106 H   0  0  0  0  0  0  0  0  0  0  0  0
    0.0550   -0.7035    2.2839 H   0  0  0  0  0  0  0  0  0  0  0  0
   -0.2498   -2.4205    1.9641 H   0  0  0  0  0  0  0  0  0  0  0  0
    1.4591    0.9855    1.6062 H   0  0  0  0  0  0  0  0  0  0  0  0
    2.3966   -0.1238    2.6943 H   0  0  0  0  0  0  0  0  0  0  0  0
    3.2312    0.9748    1.5448 H   0  0  0  0  0  0  0  0  0  0  0  0
    6.9786   -2.3924   -0.4380 H   0  0  0  0  0  0  0  0  0  0  0  0
    8.3378   -0.8256   -1.2937 H   0  0  0  0  0  0  0  0  0  0  0  0
   10.6667    2.8534    1.1520 H   0  0  0  0  0  0  0  0  0  0  0  0
   10.7734    3.0573   -0.6444 H   0  0  0  0  0  0  0  0  0  0  0  0
    9.7067    4.1471    0.3228 H   0  0  0  0  0  0  0  0  0  0  0  0
    5.7808    1.7908    0.9963 H   0  0  0  0  0  0  0  0  0  0  0  0
    4.0371   -2.1959   -1.9330 H   0  0  0  0  0  0  0  0  0  0  0  0
    2.3779   -4.1147   -2.9177 H   0  0  0  0  0  0  0  0  0  0  0  0
   -0.0818   -4.9141   -2.2517 H   0  0  0  0  0  0  0  0  0  0  0  0
   -0.3397    0.4781   -0.3830 H   0  0  0  0  0  0  0  0  0  0  0  0
   -1.2333    1.0260    1.0834 H   0  0  0  0  0  0  0  0  0  0  0  0
   -2.4338    1.6914   -0.9684 H   0  0  0  0  0  0  0  0  0  0  0  0
   -2.4087    0.0113   -1.5868 H   0  0  0  0  0  0  0  0  0  0  0  0
   -6.3275   -0.1695    0.1921 H   0  0  0  0  0  0  0  0  0  0  0  0
   -7.6862    0.7858    1.7809 H   0  0  0  0  0  0  0  0  0  0  0  0
   -6.2480    1.7568    2.2521 H   0  0  0  0  0  0  0  0  0  0  0  0
   -8.7429    2.7154    1.1637 H   0  0  0  0  0  0  0  0  0  0  0  0
   -7.2379    3.6848    1.4149 H   0  0  0  0  0  0  0  0  0  0  0  0
   -6.7199    3.6568   -0.8270 H   0  0  0  0  0  0  0  0  0  0  0  0
   -8.4135    3.0867   -1.1107 H   0  0  0  0  0  0  0  0  0  0  0  0
   -6.2319    1.6085   -1.8990 H   0  0  0  0  0  0  0  0  0  0  0  0
   -7.7549    0.8469   -1.3026 H   0  0  0  0  0  0  0  0  0  0  0  0
  1  2  1  0
  1  3  1  0
  3  4  1  0
  4  5  1  0
  5  6  1  0
  6  7  2  0
  7  8  1  0
  7  9  1  0
  9 10  1  0
 10 11  2  3
 11 12  1  0
 11 13  1  0
 13 14  2  0
 14 15  1  0
 15 16  2  0
 16 17  1  0
 16 18  1  0
 18 19  2  0
  9 20  2  0
 20 21  1  0
 21 22  1  0
 22 23  2  0
 23 24  1  0
 24 25  2  0
  4 26  1  0
 26 27  1  0
 27 28  1  0
 28 29  1  0
 29 30  2  0
 29 31  1  0
 31 32  1  0
 32 33  1  0
 33 34  1  0
 34 35  1  0
 28  1  1  0
 35 31  1  0
 25  6  1  0
 19 13  1  0
 25 21  1  0
  1 36  1  1
  2 37  1  0
  2 38  1  0
  2 39  1  0
  3 40  1  0
  3 41  1  0
  5 42  1  0
  5 43  1  0
  8 44  1  0
  8 45  1  0
  8 46  1  0
 12 47  1  0
 14 48  1  0
 17 49  1  0
 17 50  1  0
 17 51  1  0
 19 52  1  0
 20 53  1  0
 22 54  1  0
 23 55  1  0
 26 56  1  0
 26 57  1  0
 27 58  1  0
 27 59  1  0
 31 60  1  0
 32 61  1  0
 32 62  1  0
 33 63  1  0
 33 64  1  0
 34 65  1  0
 34 66  1  0
 35 67  1  0
 35 68  1  0
M  END
$$$$
