
 OpenBabel12121609593D
libRbt.so/2013.1/901 2013/11/27
 14 14  0  0  1  0  0  0  0  0999 V2000
   21.8480   23.3079   24.2415 C   0  0  1  0  0  0  0  0  0  0  0  0
   22.5564   24.4871   24.5270 O   0  0  0  0  0  0  0  0  0  0  0  0
   21.1109   23.4426   23.0426 O   0  0  0  0  0  0  0  0  0  0  0  0
   21.3090   22.2673   22.2848 C   0  0  2  0  0  0  0  0  0  0  0  0
   19.9644   21.7461   21.7625 C   0  0  0  0  0  0  0  0  0  0  0  0
   19.3769   22.6844   20.9024 O   0  0  0  0  0  0  0  0  0  0  0  0
   22.0200   21.2337   23.1544 C   0  0  1  0  0  0  0  0  0  0  0  0
   22.8736   20.4274   22.3841 O   0  0  0  0  0  0  0  0  0  0  0  0
   22.7721   22.0985   24.1351 C   0  0  1  0  0  0  0  0  0  0  0  0
   24.0243   22.4763   23.6163 O   0  0  0  0  0  0  0  0  0  0  0  0
   23.0996   24.7081   23.7256 H   0  0  0  0  0  0  0  0  0  0  0  0
   18.5183   22.2909   20.5961 H   0  0  0  0  0  0  0  0  0  0  0  0
   23.2703   19.7643   23.0074 H   0  0  0  0  0  0  0  0  0  0  0  0
   24.4716   23.0189   24.3169 H   0  0  0  0  0  0  0  0  0  0  0  0
  1  2  1  6  0  0  0
  1  3  1  0  0  0  0
  2 11  1  0  0  0  0
  3  4  1  0  0  0  0
  4  5  1  1  0  0  0
  4  7  1  0  0  0  0
  5  6  1  0  0  0  0
  6 12  1  0  0  0  0
  7  8  1  6  0  0  0
  7  9  1  0  0  0  0
  8 13  1  0  0  0  0
  9 10  1  6  0  0  0
  9  1  1  0  0  0  0
 10 14  1  0  0  0  0
M  END
