
 OpenBabel12121610013D
libRbt.so/2013.1/901 2013/11/27
 14 14  0  0  1  0  0  0  0  0999 V2000
   29.9702   26.9333   23.1640 C   0  0  1  0  0  0  0  0  0  0  0  0
   30.9522   27.7387   23.7648 O   0  0  0  0  0  0  0  0  0  0  0  0
   29.8261   27.2546   21.7947 O   0  0  0  0  0  0  0  0  0  0  0  0
   29.7735   26.0410   21.0742 C   0  0  2  0  0  0  0  0  0  0  0  0
   28.6109   26.0735   20.0743 C   0  0  0  0  0  0  0  0  0  0  0  0
   27.3835   26.0906   20.7517 O   0  0  0  0  0  0  0  0  0  0  0  0
   29.6405   24.8857   22.0630 C   0  0  1  0  0  0  0  0  0  0  0  0
   30.2957   23.7376   21.5889 O   0  0  0  0  0  0  0  0  0  0  0  0
   30.2859   25.4473   23.3053 C   0  0  1  0  0  0  0  0  0  0  0  0
   31.6765   25.2330   23.2912 O   0  0  0  0  0  0  0  0  0  0  0  0
   31.7058   27.8161   23.1228 H   0  0  0  0  0  0  0  0  0  0  0  0
   27.2994   26.9895   21.1649 H   0  0  0  0  0  0  0  0  0  0  0  0
   31.2325   24.0073   21.4013 H   0  0  0  0  0  0  0  0  0  0  0  0
   31.8157   24.2556   23.3941 H   0  0  0  0  0  0  0  0  0  0  0  0
  1  2  1  6  0  0  0
  1  3  1  0  0  0  0
  2 11  1  0  0  0  0
  3  4  1  0  0  0  0
  4  5  1  1  0  0  0
  4  7  1  0  0  0  0
  5  6  1  0  0  0  0
  6 12  1  0  0  0  0
  7  8  1  6  0  0  0
  7  9  1  0  0  0  0
  8 13  1  0  0  0  0
  9 10  1  6  0  0  0
  9  1  1  0  0  0  0
 10 14  1  0  0  0  0
M  END
