
 OpenBabel12121609573D
libRbt.so/2013.1/901 2013/11/27
 14 14  0  0  1  0  0  0  0  0999 V2000
   30.0343   27.0958   23.2099 C   0  0  1  0  0  0  0  0  0  0  0  0
   31.0068   27.9464   23.7619 O   0  0  0  0  0  0  0  0  0  0  0  0
   29.9036   27.3179   21.8198 O   0  0  0  0  0  0  0  0  0  0  0  0
   29.8632   26.0557   21.1873 C   0  0  2  0  0  0  0  0  0  0  0  0
   28.7113   26.0117   20.1756 C   0  0  0  0  0  0  0  0  0  0  0  0
   27.4771   26.0890   20.8360 O   0  0  0  0  0  0  0  0  0  0  0  0
   29.7239   24.9735   22.2546 C   0  0  1  0  0  0  0  0  0  0  0  0
   30.3884   23.7973   21.8706 O   0  0  0  0  0  0  0  0  0  0  0  0
   30.3539   25.6251   23.4603 C   0  0  1  0  0  0  0  0  0  0  0  0
   31.7454   25.4165   23.4760 O   0  0  0  0  0  0  0  0  0  0  0  0
   31.7661   27.9828   23.1230 H   0  0  0  0  0  0  0  0  0  0  0  0
   27.3981   27.0158   21.1835 H   0  0  0  0  0  0  0  0  0  0  0  0
   30.1307   23.6255   20.9274 H   0  0  0  0  0  0  0  0  0  0  0  0
   31.8873   24.4522   23.6639 H   0  0  0  0  0  0  0  0  0  0  0  0
  1  2  1  6  0  0  0
  1  3  1  0  0  0  0
  2 11  1  0  0  0  0
  3  4  1  0  0  0  0
  4  5  1  1  0  0  0
  4  7  1  0  0  0  0
  5  6  1  0  0  0  0
  6 12  1  0  0  0  0
  7  8  1  6  0  0  0
  7  9  1  0  0  0  0
  8 13  1  0  0  0  0
  9 10  1  6  0  0  0
  9  1  1  0  0  0  0
 10 14  1  0  0  0  0
M  END
